/*--------------------------------*- C++ -*----------------------------------*\
| =========                 |                                                 |
| \\      /  F ield         | OpenFOAM: The Open Source CFD Toolbox           |
|  \\    /   O peration     | Version:  2506                                  |
|   \\  /    A nd           | Website:  www.openfoam.com                      |
|    \\/     M anipulation  |                                                 |
\*---------------------------------------------------------------------------*/
FoamFile
{
    version     2.0;
    format      ascii;
    arch        "LSB;label=32;scalar=64";
    class       polyBoundaryMesh;
    location    "constant/polyMesh";
    object      boundary;
}
// * * * * * * * * * * * * * * * * * * * * * * * * * * * * * * * * * * * * * //

7
(
    protectedZone
    {
        type            wall;
        inGroups        1(wall);
        nFaces          594;
        startFace       408858;
    }
    waveFacing
    {
        type            wall;
        inGroups        1(wall);
        nFaces          1728;
        startFace       409452;
    }
    top
    {
        type            wall;
        inGroups        1(wall);
        nFaces          1620;
        startFace       411180;
    }
    bottom
    {
        type            wall;
        inGroups        1(wall);
        nFaces          1620;
        startFace       412800;
    }
    backSurface
    {
        type            wall;
        inGroups        1(wall);
        nFaces          2322;
        startFace       414420;
    }
    frontAndBack
    {
        type            wall;
        inGroups        1(wall);
        nFaces          10320;
        startFace       416742;
    }
    erodedWall
    {
        type            wall;
        inGroups        1(wall);
        nFaces          0;
        startFace       427062;
    }
)

// ************************************************************************* //
