/*--------------------------------*- C++ -*----------------------------------*\
|      thermalFoam - Sampling configuration for postProcess utility           |
|  This file is automatically generated by setup_postprocessing.sh            |
\*---------------------------------------------------------------------------*/
FoamFile
{
    version     2.0;
    format      ascii;
    class       dictionary;
    location    "system";
    object      sampling;
}

type            sets;
libs            ("libsampling.so");
interpolationScheme cellPoint;
setFormat       csv;      // Use raw format for easy parsing by postProcess_temperature.py

fields ( T theta );

sets
(
    // Sample lines along x-axis at different z-heights (y=-0.11, domain center)
    
    // Protected Zone sampling line
    protectedZoneLine
    {
        type        uniform;
        axis        x;
        start       (7.38 0.005 0.03);
        end         (7.58 0.005 0.03);
        nPoints     11;
    }
    
    // Wave Impact Zone sampling line
    waveImpactZoneLine
    {
        type        uniform;
        axis        x;
        start       (7.38 0.005 0.135);
        end         (7.58 0.005 0.135);
        nPoints     11;
    }
    
    // Air Exposed Zone sampling line
    airExposedZoneLine
    {
        type        uniform;
        axis        x;
        start       (7.38 0.005 0.23);
        end         (7.58 0.005 0.23);
        nPoints     11;
    }
    
    // Vertical temperature profiles (y=-0.11, domain center)
    
    // Wave-facing surface profile
    waveFacingSurfaceProfile
    {
        type        uniform;
        axis        z;
        start       (7.38 0.005 0.00);
        end         (7.38 0.005 0.33);
        nPoints     34;
    }
    
    // Mid-domain profile
    midDomainProfile
    {
        type        uniform;
        axis        z;
        start       (7.48 0.005 0.00);
        end         (7.48 0.005 0.33);
        nPoints     34;
    }
    
    // Back surface profile
    backSurfaceProfile
    {
        type        uniform;
        axis        z;
        start       (7.58 0.005 0.00);
        end         (7.58 0.005 0.33);
        nPoints     34;
    }
);
