/*--------------------------------*- C++ -*----------------------------------*\
| =========                 |                                                 |
| \\      /  F ield         | OpenFOAM: The Open Source CFD Toolbox           |
|  \\    /   O peration     | setFieldsDict generated by Python               |
|   \\  /    A nd           |                                                 |
|    \\/     M anipulation  |                                                 |
\*---------------------------------------------------------------------------*/
FoamFile
{
    version     2.0;
    format      ascii;
    class       dictionary;
    location    "system";
    object      setFieldsDict;
}
// * * * * * * * * * * * * * * * * * * * * * * * * * * * * * * * * * * * * * //
defaultFieldValues
(
    volScalarFieldValue T 258.288887
);

regions
(
    boxToCell
    {
        // x_rel = [0.000, 0.005] m (center=0.0025), T = 265.08 K (-8.07 °C)
        box (7.380000 0.000000 0.000000) (7.385000 0.270000 0.270000);
        fieldValues ( volScalarFieldValue T 265.075762 );
    }

    boxToCell
    {
        // x_rel = [0.005, 0.010] m (center=0.0075), T = 264.18 K (-8.97 °C)
        box (7.385000 0.000000 0.000000) (7.390000 0.270000 0.270000);
        fieldValues ( volScalarFieldValue T 264.177231 );
    }

    boxToCell
    {
        // x_rel = [0.010, 0.015] m (center=0.0125), T = 263.28 K (-9.87 °C)
        box (7.390000 0.000000 0.000000) (7.395000 0.270000 0.270000);
        fieldValues ( volScalarFieldValue T 263.278699 );
    }

    boxToCell
    {
        // x_rel = [0.015, 0.020] m (center=0.0175), T = 262.38 K (-10.77 °C)
        box (7.395000 0.000000 0.000000) (7.400000 0.270000 0.270000);
        fieldValues ( volScalarFieldValue T 262.380168 );
    }

    boxToCell
    {
        // x_rel = [0.020, 0.025] m (center=0.0225), T = 261.44 K (-11.71 °C)
        box (7.400000 0.000000 0.000000) (7.405000 0.270000 0.270000);
        fieldValues ( volScalarFieldValue T 261.441102 );
    }

    boxToCell
    {
        // x_rel = [0.025, 0.030] m (center=0.0275), T = 260.32 K (-12.83 °C)
        box (7.405000 0.000000 0.000000) (7.410000 0.270000 0.270000);
        fieldValues ( volScalarFieldValue T 260.322527 );
    }

    boxToCell
    {
        // x_rel = [0.030, 0.035] m (center=0.0325), T = 259.25 K (-13.90 °C)
        box (7.410000 0.000000 0.000000) (7.415000 0.270000 0.270000);
        fieldValues ( volScalarFieldValue T 259.250277 );
    }

    boxToCell
    {
        // x_rel = [0.035, 0.040] m (center=0.0375), T = 258.50 K (-14.65 °C)
        box (7.415000 0.000000 0.000000) (7.420000 0.270000 0.270000);
        fieldValues ( volScalarFieldValue T 258.502302 );
    }

    boxToCell
    {
        // x_rel = [0.040, 0.045] m (center=0.0425), T = 258.27 K (-14.88 °C)
        box (7.420000 0.000000 0.000000) (7.425000 0.270000 0.270000);
        fieldValues ( volScalarFieldValue T 258.265591 );
    }

    boxToCell
    {
        // x_rel = [0.045, 0.050] m (center=0.0475), T = 258.16 K (-14.99 °C)
        box (7.425000 0.000000 0.000000) (7.430000 0.270000 0.270000);
        fieldValues ( volScalarFieldValue T 258.160289 );
    }

    boxToCell
    {
        // x_rel = [0.050, 0.055] m (center=0.0525), T = 258.09 K (-15.06 °C)
        box (7.430000 0.000000 0.000000) (7.435000 0.270000 0.270000);
        fieldValues ( volScalarFieldValue T 258.087078 );
    }

    boxToCell
    {
        // x_rel = [0.055, 0.060] m (center=0.0575), T = 258.03 K (-15.12 °C)
        box (7.435000 0.000000 0.000000) (7.440000 0.270000 0.270000);
        fieldValues ( volScalarFieldValue T 258.025154 );
    }

    boxToCell
    {
        // x_rel = [0.060, 0.065] m (center=0.0625), T = 257.95 K (-15.20 °C)
        box (7.440000 0.000000 0.000000) (7.445000 0.270000 0.270000);
        fieldValues ( volScalarFieldValue T 257.954640 );
    }

    boxToCell
    {
        // x_rel = [0.065, 0.070] m (center=0.0675), T = 257.87 K (-15.28 °C)
        box (7.445000 0.000000 0.000000) (7.450000 0.270000 0.270000);
        fieldValues ( volScalarFieldValue T 257.874966 );
    }

    boxToCell
    {
        // x_rel = [0.070, 0.075] m (center=0.0725), T = 257.80 K (-15.35 °C)
        box (7.450000 0.000000 0.000000) (7.455000 0.270000 0.270000);
        fieldValues ( volScalarFieldValue T 257.803767 );
    }

    boxToCell
    {
        // x_rel = [0.075, 0.080] m (center=0.0775), T = 257.76 K (-15.39 °C)
        box (7.455000 0.000000 0.000000) (7.460000 0.270000 0.270000);
        fieldValues ( volScalarFieldValue T 257.759380 );
    }

    boxToCell
    {
        // x_rel = [0.080, 0.085] m (center=0.0825), T = 257.78 K (-15.37 °C)
        box (7.460000 0.000000 0.000000) (7.465000 0.270000 0.270000);
        fieldValues ( volScalarFieldValue T 257.776000 );
    }

    boxToCell
    {
        // x_rel = [0.085, 0.090] m (center=0.0875), T = 257.92 K (-15.23 °C)
        box (7.465000 0.000000 0.000000) (7.470000 0.270000 0.270000);
        fieldValues ( volScalarFieldValue T 257.922539 );
    }

    boxToCell
    {
        // x_rel = [0.090, 0.095] m (center=0.0925), T = 258.12 K (-15.03 °C)
        box (7.470000 0.000000 0.000000) (7.475000 0.270000 0.270000);
        fieldValues ( volScalarFieldValue T 258.119321 );
    }

    boxToCell
    {
        // x_rel = [0.095, 0.100] m (center=0.0975), T = 258.27 K (-14.88 °C)
        box (7.475000 0.000000 0.000000) (7.480000 0.270000 0.270000);
        fieldValues ( volScalarFieldValue T 258.265860 );
    }

    boxToCell
    {
        // x_rel = [0.100, 0.105] m (center=0.1025), T = 258.28 K (-14.87 °C)
        box (7.480000 0.000000 0.000000) (7.485000 0.270000 0.270000);
        fieldValues ( volScalarFieldValue T 258.279399 );
    }

    boxToCell
    {
        // x_rel = [0.105, 0.110] m (center=0.1075), T = 258.21 K (-14.94 °C)
        box (7.485000 0.000000 0.000000) (7.490000 0.270000 0.270000);
        fieldValues ( volScalarFieldValue T 258.213343 );
    }

    boxToCell
    {
        // x_rel = [0.110, 0.115] m (center=0.1125), T = 258.11 K (-15.04 °C)
        box (7.490000 0.000000 0.000000) (7.495000 0.270000 0.270000);
        fieldValues ( volScalarFieldValue T 258.106401 );
    }

    boxToCell
    {
        // x_rel = [0.115, 0.120] m (center=0.1175), T = 257.98 K (-15.17 °C)
        box (7.495000 0.000000 0.000000) (7.500000 0.270000 0.270000);
        fieldValues ( volScalarFieldValue T 257.984838 );
    }

    boxToCell
    {
        // x_rel = [0.120, 0.125] m (center=0.1225), T = 257.87 K (-15.28 °C)
        box (7.500000 0.000000 0.000000) (7.505000 0.270000 0.270000);
        fieldValues ( volScalarFieldValue T 257.870459 );
    }

    boxToCell
    {
        // x_rel = [0.125, 0.130] m (center=0.1275), T = 257.75 K (-15.40 °C)
        box (7.505000 0.000000 0.000000) (7.510000 0.270000 0.270000);
        fieldValues ( volScalarFieldValue T 257.752874 );
    }

    boxToCell
    {
        // x_rel = [0.130, 0.135] m (center=0.1325), T = 257.63 K (-15.52 °C)
        box (7.510000 0.000000 0.000000) (7.515000 0.270000 0.270000);
        fieldValues ( volScalarFieldValue T 257.628605 );
    }

    boxToCell
    {
        // x_rel = [0.135, 0.140] m (center=0.1375), T = 257.50 K (-15.65 °C)
        box (7.515000 0.000000 0.000000) (7.520000 0.270000 0.270000);
        fieldValues ( volScalarFieldValue T 257.497536 );
    }

    boxToCell
    {
        // x_rel = [0.140, 0.145] m (center=0.1425), T = 257.36 K (-15.79 °C)
        box (7.520000 0.000000 0.000000) (7.525000 0.270000 0.270000);
        fieldValues ( volScalarFieldValue T 257.359549 );
    }

    boxToCell
    {
        // x_rel = [0.145, 0.150] m (center=0.1475), T = 257.21 K (-15.94 °C)
        box (7.525000 0.000000 0.000000) (7.530000 0.270000 0.270000);
        fieldValues ( volScalarFieldValue T 257.214528 );
    }

    boxToCell
    {
        // x_rel = [0.150, 0.155] m (center=0.1525), T = 257.06 K (-16.09 °C)
        box (7.530000 0.000000 0.000000) (7.535000 0.270000 0.270000);
        fieldValues ( volScalarFieldValue T 257.062356 );
    }

    boxToCell
    {
        // x_rel = [0.155, 0.160] m (center=0.1575), T = 256.90 K (-16.25 °C)
        box (7.535000 0.000000 0.000000) (7.540000 0.270000 0.270000);
        fieldValues ( volScalarFieldValue T 256.902917 );
    }

    boxToCell
    {
        // x_rel = [0.160, 0.165] m (center=0.1625), T = 256.74 K (-16.41 °C)
        box (7.540000 0.000000 0.000000) (7.545000 0.270000 0.270000);
        fieldValues ( volScalarFieldValue T 256.736094 );
    }

    boxToCell
    {
        // x_rel = [0.165, 0.170] m (center=0.1675), T = 256.56 K (-16.59 °C)
        box (7.545000 0.000000 0.000000) (7.550000 0.270000 0.270000);
        fieldValues ( volScalarFieldValue T 256.561770 );
    }

    boxToCell
    {
        // x_rel = [0.170, 0.175] m (center=0.1725), T = 256.38 K (-16.77 °C)
        box (7.550000 0.000000 0.000000) (7.555000 0.270000 0.270000);
        fieldValues ( volScalarFieldValue T 256.379828 );
    }

    boxToCell
    {
        // x_rel = [0.175, 0.180] m (center=0.1775), T = 256.19 K (-16.96 °C)
        box (7.555000 0.000000 0.000000) (7.560000 0.270000 0.270000);
        fieldValues ( volScalarFieldValue T 256.190153 );
    }

    boxToCell
    {
        // x_rel = [0.180, 0.185] m (center=0.1825), T = 255.99 K (-17.16 °C)
        box (7.560000 0.000000 0.000000) (7.565000 0.270000 0.270000);
        fieldValues ( volScalarFieldValue T 255.992626 );
    }

    boxToCell
    {
        // x_rel = [0.185, 0.190] m (center=0.1875), T = 255.79 K (-17.36 °C)
        box (7.565000 0.000000 0.000000) (7.570000 0.270000 0.270000);
        fieldValues ( volScalarFieldValue T 255.787132 );
    }

    boxToCell
    {
        // x_rel = [0.190, 0.195] m (center=0.1925), T = 255.57 K (-17.58 °C)
        box (7.570000 0.000000 0.000000) (7.575000 0.270000 0.270000);
        fieldValues ( volScalarFieldValue T 255.573553 );
    }

    boxToCell
    {
        // x_rel = [0.195, 0.200] m (center=0.1975), T = 255.35 K (-17.80 °C)
        box (7.575000 0.000000 0.000000) (7.580000 0.270000 0.270000);
        fieldValues ( volScalarFieldValue T 255.351774 );
    }

);

// ************************************************************************* //
